$TITLE = 10612 35944
BEGIN BULK
MAT1*                  1    2.070000e+11                    2.900000e-01
*           7.801000e+03
PSOLID  1       1       
CTETRA  1       1       1700    1699    1698    1697    
CTETRA  2       1       3207    3209    3208    1696    
CTETRA  3       1       3199    3482    4589    1695    
CTETRA  4       1       8965    1694    1693    1692    
CTETRA  5       1       9605    9613    1691    1690    
CTETRA  6       1       3207    5640    1696    1695    
CTETRA  7       1       2209    1689    1688    1687    
CTETRA  8       1       9783    1686    9788    1685    
CTETRA  9       1       9607    1684    9600    1683    
CTETRA  10      1       5639    1696    5640    1695    
CTETRA  11      1       5641    1696    5639    1695    
CTETRA  12      1       7123    7126    1682    1681    
CTETRA  13      1       3491    3281    4655    1680    
CTETRA  14      1       6958    8897    8900    1679    
CTETRA  15      1       4655    3281    3280    1680    
CTETRA  16      1       4523    4657    4528    1678    
CTETRA  17      1       9204    9646    9628    1677    
CTETRA  18      1       4664    7124    7121    1681    
CTETRA  19      1       4528    1678    1681    1676    
CTETRA  20      1       2873    1675    1674    1673    
$ ... 35924 like lines cut
GRID*   1                               -1.862979e-02   1.956191e-01    *
*       -1.488344e-03   
GRID*   2                               2.512228e-02    1.948480e-01    *
*       4.643579e-03    
GRID*   3                               -1.023381e-02   1.906303e-01    *
*       -5.317389e-03   
GRID*   4                               1.445864e-02    1.915897e-01    *
*       5.181402e-03    
GRID*   5                               1.200942e-04    1.919799e-01    *
*       5.425879e-03    
GRID*   6                               2.325299e-02    1.942863e-01    *
*       -4.884252e-03   
GRID*   7                               9.012658e-03    1.975706e-01    *
*       1.557733e-03    
GRID*   8                               -1.754238e-02   1.918681e-01    *
*       -5.091960e-03   
GRID*   9                               -7.337338e-03   1.997675e-01    *
*       -2.305289e-03   
GRID*   10                              -3.858166e-02   1.954603e-01    *
*       -3.206822e-03   
GRID*   11                              -2.954637e-02   1.927328e-01    *
*       -1.534348e-03   
GRID*   12                              -6.688171e-03   1.982355e-01    *
*       -6.025197e-03   
GRID*   13                              4.008935e-02    1.954129e-01    *
*       3.762515e-03    
GRID*   14                              -6.505552e-03   1.917713e-01    *
*       -5.492222e-03   
GRID*   15                              -8.983895e-03   1.916955e-01    *
*       -5.454984e-03   
GRID*   16                              -7.121457e-03   1.979897e-01    *
*       -5.752542e-03   
GRID*   17                              -2.634832e-02   1.914593e-01    *
*       5.223764e-03    
GRID*   18                              1.429830e-02    1.914920e-01    *
*       4.924599e-03    
GRID*   19                              -5.075031e-03   1.911641e-01    *
*       -5.427667e-03   
GRID*   20                              -3.415521e-02   1.908879e-01    *
*       -5.048999e-03   
$ ... 21184 like lines cut
ENDDATA
